NAP.pdb
 OpenBabel02042117133D

 77 81  0  0  1  0  0  0  0  0999 V2000
   23.6430   28.2940   72.5100 P   0  0  2  0  0  0  0  0  0  0  0  0
   24.5060   29.2940   71.8710 O   0  0  0  0  0  0  0  0  0  0  0  0
   22.5930   28.6990   73.4280 O   0  0  0  0  0  0  0  0  0  0  0  0
   24.5530   27.0650   73.0420 O   0  0  0  0  0  0  0  0  0  0  0  0
   23.9310   25.8680   73.5190 C   0  0  0  0  0  0  0  0  0  0  0  0
   25.1150   24.9730   73.8230 C   0  0  1  0  0  0  0  0  0  0  0  0
   25.9170   25.6590   74.8160 O   0  0  0  0  0  0  0  0  0  0  0  0
   24.6100   23.6700   74.4380 C   0  0  1  0  0  0  0  0  0  0  0  0
   25.5340   22.6350   74.1380 O   0  0  0  0  0  0  0  0  0  0  0  0
   24.7530   23.8690   75.9320 C   0  0  1  0  0  0  0  0  0  0  0  0
   25.0510   22.6380   76.6520 O   0  0  0  0  0  0  0  0  0  0  0  0
   25.9180   24.8600   76.0240 C   0  0  2  0  0  0  0  0  0  0  0  0
   25.8430   25.6450   77.2860 N   0  0  0  0  0  0  0  0  0  0  0  0
   24.7730   26.2840   77.8390 C   0  0  0  0  0  0  0  0  0  0  0  0
   25.1170   26.8570   79.0040 N   0  0  0  0  0  0  0  0  0  0  0  0
   26.4320   26.6030   79.0990 C   0  0  0  0  0  0  0  0  0  0  0  0
   27.2910   27.0490   80.0930 C   0  0  0  0  0  0  0  0  0  0  0  0
   26.9140   27.8400   81.0830 N   0  0  0  0  0  0  0  0  0  0  0  0
   28.5620   26.6070   80.0640 N   0  0  0  0  0  0  0  0  0  0  0  0
   28.9740   25.7800   79.1030 C   0  0  0  0  0  0  0  0  0  0  0  0
   28.1560   25.3890   78.1390 N   0  0  0  0  0  0  0  0  0  0  0  0
   26.8870   25.8050   78.0870 C   0  0  0  0  0  0  0  0  0  0  0  0
   22.9820   27.5940   71.2410 O   0  0  0  0  0  0  0  0  0  0  0  0
   21.6490   27.5420   70.3480 P   0  0  2  0  0  0  0  0  0  0  0  0
   20.7980   26.4710   70.9000 O   0  0  0  0  0  0  0  0  0  0  0  0
   22.1530   27.4760   68.9740 O   0  0  0  0  0  0  0  0  0  0  0  0
   20.9090   28.9890   70.5130 O   0  0  0  0  0  0  0  0  0  0  0  0
   20.0020   29.2270   71.6090 C   0  0  0  0  0  0  0  0  0  0  0  0
   18.5290   29.1140   71.2290 C   0  0  1  0  0  0  0  0  0  0  0  0
   18.2410   30.1160   70.2690 O   0  0  0  0  0  0  0  0  0  0  0  0
   18.0720   27.8080   70.5760 C   0  0  1  0  0  0  0  0  0  0  0  0
   17.8660   26.7150   71.4540 O   0  0  0  0  0  0  0  0  0  0  0  0
   16.7800   28.2610   69.9510 C   0  0  1  0  0  0  0  0  0  0  0  0
   15.8480   28.2150   71.0160 O   0  0  0  0  0  0  0  0  0  0  0  0
   17.1710   29.6660   69.4790 C   0  0  2  0  0  0  0  0  0  0  0  0
   17.6410   29.6930   68.0770 N   0  0  0  0  0  0  0  0  0  0  0  0
   16.7790   30.1230   67.0680 C   0  0  0  0  0  0  0  0  0  0  0  0
   17.1490   29.9980   65.7470 C   0  0  0  0  0  0  0  0  0  0  0  0
   16.2870   30.5890   64.6670 C   0  0  0  0  0  0  0  0  0  0  0  0
   16.5160   30.3040   63.4990 O   0  0  0  0  0  0  0  0  0  0  0  0
   15.3140   31.4110   65.0700 N   0  0  0  0  0  0  0  0  0  0  0  0
   18.3320   29.3830   65.3710 C   0  0  0  0  0  0  0  0  0  0  0  0
   19.2040   28.9120   66.3500 C   0  0  0  0  0  0  0  0  0  0  0  0
   18.8640   29.1160   67.6780 C   0  0  0  0  0  0  0  0  0  0  0  0
   24.0080   21.7500   77.4840 P   0  0  0  0  0  0  0  0  0  0  0  0
   22.6590   21.8400   76.8390 O   0  0  0  0  0  0  0  0  0  0  0  0
   24.6090   20.3860   77.3360 O   0  0  0  0  0  0  0  0  0  0  0  0
   24.0580   22.2130   78.8860 O   0  0  0  0  0  0  0  0  0  0  0  0
   22.0931   29.4356   73.0428 H   0  0  0  0  0  0  0  0  0  0  0  0
   23.3029   25.4347   72.7689 H   0  0  0  0  0  0  0  0  0  0  0  0
   23.2938   26.0291   74.3634 H   0  0  0  0  0  0  0  0  0  0  0  0
   25.6740   24.7622   72.9353 H   0  0  0  0  0  0  0  0  0  0  0  0
   23.6235   23.4356   74.0964 H   0  0  0  0  0  0  0  0  0  0  0  0
   26.4139   22.8832   74.4620 H   0  0  0  0  0  0  0  0  0  0  0  0
   23.8456   24.2126   76.3830 H   0  0  0  0  0  0  0  0  0  0  0  0
   26.8611   24.3574   76.0775 H   0  0  0  0  0  0  0  0  0  0  0  0
   23.8303   26.3221   77.4208 H   0  0  0  0  0  0  0  0  0  0  0  0
   25.9885   28.1735   81.1215 H   0  0  0  0  0  0  0  0  0  0  0  0
   27.5588   28.0955   81.7817 H   0  0  0  0  0  0  0  0  0  0  0  0
   29.9479   25.4387   79.1110 H   0  0  0  0  0  0  0  0  0  0  0  0
   19.9794   26.4098   70.3833 H   0  0  0  0  0  0  0  0  0  0  0  0
   20.1783   30.2135   71.9839 H   0  0  0  0  0  0  0  0  0  0  0  0
   20.1929   28.4692   72.3398 H   0  0  0  0  0  0  0  0  0  0  0  0
   18.0203   29.1935   72.1670 H   0  0  0  0  0  0  0  0  0  0  0  0
   18.8110   27.4063   69.9146 H   0  0  0  0  0  0  0  0  0  0  0  0
   17.2014   26.9549   72.1186 H   0  0  0  0  0  0  0  0  0  0  0  0
   16.3504   27.7108   69.1400 H   0  0  0  0  0  0  0  0  0  0  0  0
   16.2005   28.7047   71.7755 H   0  0  0  0  0  0  0  0  0  0  0  0
   16.2972   30.2782   69.5610 H   0  0  0  0  0  0  0  0  0  0  0  0
   15.8644   30.5346   67.3111 H   0  0  0  0  0  0  0  0  0  0  0  0
   14.7168   31.8287   64.4081 H   0  0  0  0  0  0  0  0  0  0  0  0
   15.1942   31.5991   66.0289 H   0  0  0  0  0  0  0  0  0  0  0  0
   18.5659   29.2744   64.3717 H   0  0  0  0  0  0  0  0  0  0  0  0
   20.0774   28.4255   66.0939 H   0  0  0  0  0  0  0  0  0  0  0  0
   19.6315   29.7397   68.0865 H   0  0  0  0  0  0  0  0  0  0  0  0
   24.5614   20.1107   76.4071 H   0  0  0  0  0  0  0  0  0  0  0  0
   23.6626   23.0965   78.9490 H   0  0  0  0  0  0  0  0  0  0  0  0
  1 23  1  6  0  0  0
  1  4  1  0  0  0  0
  1  3  1  0  0  0  0
  2  1  2  0  0  0  0
  3 49  1  0  0  0  0
  4  5  1  0  0  0  0
  5  6  1  0  0  0  0
  5 50  1  0  0  0  0
  5 51  1  0  0  0  0
  6  8  1  0  0  0  0
  6  7  1  0  0  0  0
  6 52  1  6  0  0  0
  7 12  1  0  0  0  0
  8 10  1  0  0  0  0
  8 53  1  6  0  0  0
  9  8  1  0  0  0  0
  9 54  1  0  0  0  0
 10 12  1  0  0  0  0
 10 11  1  0  0  0  0
 10 55  1  1  0  0  0
 11 45  1  0  0  0  0
 12 13  1  0  0  0  0
 12 56  1  1  0  0  0
 13 14  1  0  0  0  0
 13 22  1  0  0  0  0
 14 15  2  0  0  0  0
 14 57  1  0  0  0  0
 15 16  1  0  0  0  0
 16 17  2  0  0  0  0
 17 18  1  0  0  0  0
 18 58  1  0  0  0  0
 18 59  1  0  0  0  0
 19 17  1  0  0  0  0
 20 19  2  0  0  0  0
 20 60  1  0  0  0  0
 21 20  1  0  0  0  0
 22 21  2  0  0  0  0
 22 16  1  0  0  0  0
 24 26  2  6  0  0  0
 24 27  1  0  0  0  0
 24 25  1  0  0  0  0
 24 23  1  0  0  0  0
 25 61  1  0  0  0  0
 27 28  1  0  0  0  0
 28 62  1  0  0  0  0
 28 63  1  0  0  0  0
 29 28  1  0  0  0  0
 29 64  1  1  0  0  0
 30 29  1  0  0  0  0
 31 29  1  0  0  0  0
 31 32  1  0  0  0  0
 31 65  1  6  0  0  0
 32 66  1  0  0  0  0
 33 31  1  0  0  0  0
 33 34  1  0  0  0  0
 33 67  1  6  0  0  0
 34 68  1  0  0  0  0
 35 33  1  0  0  0  0
 35 30  1  0  0  0  0
 35 69  1  1  0  0  0
 36 35  1  0  0  0  0
 37 36  1  0  0  0  0
 37 70  1  0  0  0  0
 38 37  2  0  0  0  0
 39 41  1  0  0  0  0
 39 38  1  0  0  0  0
 40 39  2  0  0  0  0
 41 71  1  0  0  0  0
 41 72  1  0  0  0  0
 42 38  1  0  0  0  0
 42 43  2  0  0  0  0
 42 73  1  0  0  0  0
 43 44  1  0  0  0  0
 43 74  1  0  0  0  0
 44 36  1  0  0  0  0
 44 75  1  0  0  0  0
 45 48  1  0  0  0  0
 46 45  2  0  0  0  0
 47 45  1  0  0  0  0
 47 76  1  0  0  0  0
 48 77  1  0  0  0  0
M  END
$$$$
