pose2.pdb
 OpenBabel02022109233D

 25 26  0  0  0  0  0  0  0  0999 V2000
   25.5880   26.4850   75.7490 C   0  0  0  0  0  0  0  0  0  0  0  0
   26.1640   25.4030   76.3310 F   0  0  0  0  0  0  0  0  0  0  0  0
   24.9110   27.1450   76.7270 F   0  0  0  0  0  0  0  0  0  0  0  0
   26.5790   27.3100   75.3180 F   0  0  0  0  0  0  0  0  0  0  0  0
   24.6660   26.0790   74.5790 C   0  0  0  0  0  0  0  0  0  0  0  0
   24.3300   24.7360   74.2670 C   0  0  0  0  0  0  0  0  0  0  0  0
   24.8170   23.7520   75.0020 O   0  0  0  0  0  0  0  0  0  0  0  0
   26.0660   23.2750   74.5300 C   0  0  0  0  0  0  0  0  0  0  0  0
   23.4810   24.4710   73.1710 C   0  0  0  0  0  0  0  0  0  0  0  0
   22.9690   25.5160   72.3920 C   0  0  0  0  0  0  0  0  0  0  0  0
   23.3030   26.8510   72.6970 C   0  0  0  0  0  0  0  0  0  0  0  0
   22.7800   27.8970   71.9020 C   0  0  0  0  0  0  0  0  0  0  0  0
   23.1120   29.2270   72.2070 C   0  0  0  0  0  0  0  0  0  0  0  0
   23.9520   29.5180   73.2840 C   0  0  0  0  0  0  0  0  0  0  0  0
   24.4660   28.4780   74.0690 C   0  0  0  0  0  0  0  0  0  0  0  0
   24.1480   27.1370   73.7850 C   0  0  0  0  0  0  0  0  0  0  0  0
   21.8660   27.6750   70.7200 C   0  0  0  0  0  0  0  0  0  0  0  0
   22.3860   26.6770   69.4280 S   0  0  0  0  0  0  0  0  0  0  0  0
   20.6600   28.2470   70.7040 N   0  0  0  0  0  0  0  0  0  0  0  0
   20.2010   29.0030   71.8630 C   0  0  0  0  0  0  0  0  0  0  0  0
   19.7690   28.1200   69.5550 C   0  0  0  0  0  0  0  0  0  0  0  0
   20.1610   29.0890   68.4250 C   0  0  0  0  0  0  0  0  0  0  0  0
   19.7810   30.2300   68.3970 O   0  0  0  0  0  0  0  0  0  0  0  0
   20.9570   28.5760   67.4810 O   0  0  0  0  0  0  0  0  0  0  0  0
   21.3320   29.1360   66.8300 H   0  0  0  0  0  0  0  0  0  0  0  0
  1  2  1  0  0  0  0
  1  3  1  0  0  0  0
  1  4  1  0  0  0  0
  1  5  1  0  0  0  0
  5  6  2  0  0  0  0
  5 16  1  0  0  0  0
  6  7  1  0  0  0  0
  6  9  1  0  0  0  0
  7  8  1  0  0  0  0
  9 10  2  0  0  0  0
 10 11  1  0  0  0  0
 11 12  2  0  0  0  0
 11 16  1  0  0  0  0
 12 13  1  0  0  0  0
 12 17  1  0  0  0  0
 13 14  2  0  0  0  0
 14 15  1  0  0  0  0
 15 16  2  0  0  0  0
 17 18  2  0  0  0  0
 17 19  1  0  0  0  0
 19 20  1  0  0  0  0
 19 21  1  0  0  0  0
 21 22  1  0  0  0  0
 22 23  2  0  0  0  0
 22 24  1  0  0  0  0
 24 25  1  0  0  0  0
M  END
