STU.pdb
 OpenBabel04272122563D

 59 66  0  0  1  0  0  0  0  0999 V2000
   -0.0580   24.6050    8.9150 O   0  0  0  0  0  0  0  0  0  0  0  0
    1.3300   24.6420    8.6200 C   0  0  2  0  0  0  0  0  0  0  0  0
    2.1900   24.1630    9.8170 C   0  0  0  0  0  0  0  0  0  0  0  0
    1.2850   23.8640   11.0150 C   0  0  2  0  0  0  0  0  0  0  0  0
    0.3990   25.1070   11.3170 C   0  0  2  0  0  0  0  0  0  0  0  0
   -0.5830   25.1790   10.1000 C   0  0  2  0  0  0  0  0  0  0  0  0
   -1.7820   24.3150   10.4450 C   0  0  0  0  0  0  0  0  0  0  0  0
   -1.0180   26.5730    9.8090 N   0  0  0  0  0  0  0  0  0  0  0  0
   -0.2490   27.3530    8.9070 C   0  0  0  0  0  0  0  0  0  0  0  0
    0.8600   27.1010    8.2060 C   0  0  0  0  0  0  0  0  0  0  0  0
    1.4780   28.0810    7.3700 C   0  0  0  0  0  0  0  0  0  0  0  0
    0.7740   29.3740    7.3290 C   0  0  0  0  0  0  0  0  0  0  0  0
   -0.3120   29.6130    8.0170 C   0  0  0  0  0  0  0  0  0  0  0  0
   -0.9010   28.6450    8.8630 C   0  0  0  0  0  0  0  0  0  0  0  0
   -2.0370   28.5990    9.7020 C   0  0  0  0  0  0  0  0  0  0  0  0
   -2.1080   27.3050   10.3030 C   0  0  0  0  0  0  0  0  0  0  0  0
   -3.1120   27.0110   11.1730 C   0  0  0  0  0  0  0  0  0  0  0  0
   -4.0610   27.9440   11.4680 C   0  0  0  0  0  0  0  0  0  0  0  0
   -4.0150   29.2500   10.8950 C   0  0  0  0  0  0  0  0  0  0  0  0
   -2.9870   29.5370   10.0290 C   0  0  0  0  0  0  0  0  0  0  0  0
   -0.7870   31.0610    7.7940 C   0  0  0  0  0  0  0  0  0  0  0  0
    0.2460   31.4880    6.8730 N   0  0  0  0  0  0  0  0  0  0  0  0
    1.1910   30.5900    6.5600 C   0  0  0  0  0  0  0  0  0  0  0  0
    2.1450   30.7330    5.8200 O   0  0  0  0  0  0  0  0  0  0  0  0
    2.6460   27.5280    6.8110 C   0  0  0  0  0  0  0  0  0  0  0  0
    2.7410   26.1970    7.3090 C   0  0  0  0  0  0  0  0  0  0  0  0
    3.7550   25.3170    6.9230 C   0  0  0  0  0  0  0  0  0  0  0  0
    4.7040   25.7920    6.0470 C   0  0  0  0  0  0  0  0  0  0  0  0
    4.6280   27.1160    5.5550 C   0  0  0  0  0  0  0  0  0  0  0  0
    3.6100   27.9460    5.9210 C   0  0  0  0  0  0  0  0  0  0  0  0
    1.7090   25.9710    8.1520 N   0  0  0  0  0  0  0  0  0  0  0  0
    1.2830   26.2450   11.2960 O   0  0  0  0  0  0  0  0  0  0  0  0
    0.7080   27.3650   11.9400 C   0  0  0  0  0  0  0  0  0  0  0  0
    2.1900   23.5100   12.2490 N   0  0  0  0  0  0  0  0  0  0  0  0
    2.2190   22.0360   12.4640 C   0  0  0  0  0  0  0  0  0  0  0  0
    1.5260   23.9502    7.8276 H   0  0  0  0  0  0  0  0  0  0  0  0
    2.8892   24.9285   10.0816 H   0  0  0  0  0  0  0  0  0  0  0  0
    2.7180   23.2742    9.5410 H   0  0  0  0  0  0  0  0  0  0  0  0
    0.6411   23.0362   10.8027 H   0  0  0  0  0  0  0  0  0  0  0  0
   -0.1259   25.0722   12.2488 H   0  0  0  0  0  0  0  0  0  0  0  0
   -2.4816   24.3363    9.6357 H   0  0  0  0  0  0  0  0  0  0  0  0
   -2.2497   24.6913   11.3308 H   0  0  0  0  0  0  0  0  0  0  0  0
   -1.4600   23.3083   10.6118 H   0  0  0  0  0  0  0  0  0  0  0  0
   -3.1552   26.0777   11.6114 H   0  0  0  0  0  0  0  0  0  0  0  0
   -4.8259   27.7016   12.1170 H   0  0  0  0  0  0  0  0  0  0  0  0
   -4.7312   29.9570   11.1237 H   0  0  0  0  0  0  0  0  0  0  0  0
   -2.9269   30.4800    9.6141 H   0  0  0  0  0  0  0  0  0  0  0  0
   -1.5953   31.5716    8.1826 H   0  0  0  0  0  0  0  0  0  0  0  0
    3.7909   24.3495    7.2805 H   0  0  0  0  0  0  0  0  0  0  0  0
    5.4769   25.1777    5.7467 H   0  0  0  0  0  0  0  0  0  0  0  0
    5.3552   27.4595    4.9083 H   0  0  0  0  0  0  0  0  0  0  0  0
    3.5614   28.8984    5.5265 H   0  0  0  0  0  0  0  0  0  0  0  0
    1.3919   28.1871   11.9040 H   0  0  0  0  0  0  0  0  0  0  0  0
    0.4974   27.1206   12.9602 H   0  0  0  0  0  0  0  0  0  0  0  0
   -0.2004   27.6347   11.4431 H   0  0  0  0  0  0  0  0  0  0  0  0
    1.8155   23.9641   13.0820 H   0  0  0  0  0  0  0  0  0  0  0  0
    2.6114   21.5560   11.5919 H   0  0  0  0  0  0  0  0  0  0  0  0
    1.2260   21.6830   12.6491 H   0  0  0  0  0  0  0  0  0  0  0  0
    2.8404   21.8104   13.3054 H   0  0  0  0  0  0  0  0  0  0  0  0
  1  6  1  0  0  0  0
  2  1  1  0  0  0  0
  2  3  1  0  0  0  0
  2 36  1  6  0  0  0
  3  4  1  0  0  0  0
  3 37  1  0  0  0  0
  3 38  1  0  0  0  0
  4  5  1  0  0  0  0
  4 34  1  0  0  0  0
  4 39  1  6  0  0  0
  5 40  1  1  0  0  0
  6  7  1  1  0  0  0
  6  5  1  0  0  0  0
  7 41  1  0  0  0  0
  7 42  1  0  0  0  0
  7 43  1  0  0  0  0
  8  6  1  0  0  0  0
  8 16  1  0  0  0  0
  9  8  1  0  0  0  0
 10  9  2  0  0  0  0
 11 10  1  0  0  0  0
 12 11  2  0  0  0  0
 12 13  1  0  0  0  0
 13 14  2  0  0  0  0
 14  9  1  0  0  0  0
 14 15  1  0  0  0  0
 15 20  2  0  0  0  0
 15 16  1  0  0  0  0
 16 17  2  0  0  0  0
 17 18  1  0  0  0  0
 17 44  1  0  0  0  0
 18 45  1  0  0  0  0
 19 18  2  0  0  0  0
 19 46  1  0  0  0  0
 20 19  1  0  0  0  0
 20 47  1  0  0  0  0
 21 13  1  0  0  0  0
 21 48  1  0  0  0  0
 22 21  2  0  0  0  0
 23 22  1  0  0  0  0
 23 12  1  0  0  0  0
 24 23  2  0  0  0  0
 25 26  2  0  0  0  0
 25 11  1  0  0  0  0
 26 31  1  0  0  0  0
 27 26  1  0  0  0  0
 27 49  1  0  0  0  0
 28 27  2  0  0  0  0
 28 50  1  0  0  0  0
 29 30  2  0  0  0  0
 29 28  1  0  0  0  0
 29 51  1  0  0  0  0
 30 25  1  0  0  0  0
 30 52  1  0  0  0  0
 31 10  1  0  0  0  0
 31  2  1  0  0  0  0
 32  5  1  0  0  0  0
 32 33  1  0  0  0  0
 33 53  1  0  0  0  0
 33 54  1  0  0  0  0
 33 55  1  0  0  0  0
 34 35  1  0  0  0  0
 34 56  1  0  0  0  0
 35 57  1  0  0  0  0
 35 58  1  0  0  0  0
 35 59  1  0  0  0  0
M  END
$$$$
